<?xml version="1.0" encoding="UTF-8"?>
<!-- generated on 2021-10-21 10:57:23.662957 by $Id$ UNKNOWN
  options: -n 10grids.net.xml -o 10grids.rou.xml -e 1 <doubleminus>flow=200 <doubleminus>trip-attributes departPos="random"
-->
<routes xmlns:xsi="http://www.w3.org/2001/XMLSchema-instance" xsi:noNamespaceSchemaLocation="http://sumo.dlr.de/xsd/routes_file.xsd">
    <flow id="0" begin="0" end="1" period="200" from="G9G8" to="A3A4" departPos="random"/>
    <flow id="1" begin="0" end="1" period="200" from="D1C1" to="C5D5" departPos="random"/>
    <flow id="2" begin="0" end="1" period="200" from="H9I9" to="H3G3" departPos="random"/>
    <flow id="3" begin="0" end="1" period="200" from="J5K5" to="B1B0" departPos="random"/>
    <flow id="4" begin="0" end="1" period="200" from="E6E7" to="A4A3" departPos="random"/>
    <flow id="5" begin="0" end="1" period="200" from="C5C4" to="F5F4" departPos="random"/>
    <flow id="6" begin="0" end="1" period="200" from="A3A4" to="C3B3" departPos="random"/>
    <flow id="7" begin="0" end="1" period="200" from="H0I0" to="F9F8" departPos="random"/>
    <flow id="8" begin="0" end="1" period="200" from="C5C4" to="G4F4" departPos="random"/>
    <flow id="9" begin="0" end="1" period="200" from="I7I6" to="A10A9" departPos="random"/>
    <flow id="10" begin="0" end="1" period="200" from="I6J6" to="H5H6" departPos="random"/>
    <flow id="11" begin="0" end="1" period="200" from="D8C8" to="B8C8" departPos="random"/>
    <flow id="12" begin="0" end="1" period="200" from="K3K4" to="D7E7" departPos="random"/>
    <flow id="13" begin="0" end="1" period="200" from="B1C1" to="B2B1" departPos="random"/>
    <flow id="14" begin="0" end="1" period="200" from="J10K10" to="G5G6" departPos="random"/>
    <flow id="15" begin="0" end="1" period="200" from="I7H7" to="H9G9" departPos="random"/>
    <flow id="16" begin="0" end="1" period="200" from="F8F9" to="K6J6" departPos="random"/>
    <flow id="17" begin="0" end="1" period="200" from="E1F1" to="G0G1" departPos="random"/>
    <flow id="18" begin="0" end="1" period="200" from="I9I10" to="G7G6" departPos="random"/>
    <flow id="19" begin="0" end="1" period="200" from="J2J3" to="G2H2" departPos="random"/>
    <flow id="20" begin="0" end="1" period="200" from="H6H5" to="A6A7" departPos="random"/>
    <flow id="21" begin="0" end="1" period="200" from="C6C5" to="D2D3" departPos="random"/>
    <flow id="22" begin="0" end="1" period="200" from="B10B9" to="C6D6" departPos="random"/>
    <flow id="23" begin="0" end="1" period="200" from="B2C2" to="D1D0" departPos="random"/>
    <flow id="24" begin="0" end="1" period="200" from="G9F9" to="E10D10" departPos="random"/>
    <flow id="25" begin="0" end="1" period="200" from="E10F10" to="C4C3" departPos="random"/>
    <flow id="26" begin="0" end="1" period="200" from="D0E0" to="K10K9" departPos="random"/>
    <flow id="27" begin="0" end="1" period="200" from="H0I0" to="G6G5" departPos="random"/>
    <flow id="28" begin="0" end="1" period="200" from="C0D0" to="H8I8" departPos="random"/>
    <flow id="29" begin="0" end="1" period="200" from="B9B8" to="E1F1" departPos="random"/>
    <flow id="30" begin="0" end="1" period="200" from="K8K7" to="G9G8" departPos="random"/>
    <flow id="31" begin="0" end="1" period="200" from="G10G9" to="H4G4" departPos="random"/>
    <flow id="32" begin="0" end="1" period="200" from="J10I10" to="I3I4" departPos="random"/>
    <flow id="33" begin="0" end="1" period="200" from="C6C5" to="A4A5" departPos="random"/>
    <flow id="34" begin="0" end="1" period="200" from="D5D4" to="D0E0" departPos="random"/>
    <flow id="35" begin="0" end="1" period="200" from="C4C3" to="K1K0" departPos="random"/>
    <flow id="36" begin="0" end="1" period="200" from="J4I4" to="D5D4" departPos="random"/>
    <flow id="37" begin="0" end="1" period="200" from="H10I10" to="E3F3" departPos="random"/>
    <flow id="38" begin="0" end="1" period="200" from="J8J7" to="F0G0" departPos="random"/>
    <flow id="39" begin="0" end="1" period="200" from="D0D1" to="C8C7" departPos="random"/>
    <flow id="40" begin="0" end="1" period="200" from="G1F1" to="D0C0" departPos="random"/>
    <flow id="41" begin="0" end="1" period="200" from="G3G4" to="J6J7" departPos="random"/>
    <flow id="42" begin="0" end="1" period="200" from="E4D4" to="C5C4" departPos="random"/>
    <flow id="43" begin="0" end="1" period="200" from="K9K10" to="F5G5" departPos="random"/>
    <flow id="44" begin="0" end="1" period="200" from="B1C1" to="A6A7" departPos="random"/>
    <flow id="45" begin="0" end="1" period="200" from="B3C3" to="G8G7" departPos="random"/>
    <flow id="46" begin="0" end="1" period="200" from="I5I4" to="E6E7" departPos="random"/>
    <flow id="47" begin="0" end="1" period="200" from="A8B8" to="E2D2" departPos="random"/>
    <flow id="48" begin="0" end="1" period="200" from="K9K10" to="F7G7" departPos="random"/>
    <flow id="49" begin="0" end="1" period="200" from="K5K6" to="J2J1" departPos="random"/>
    <flow id="50" begin="0" end="1" period="200" from="A1A2" to="H8G8" departPos="random"/>
    <flow id="51" begin="0" end="1" period="200" from="H3H4" to="F8G8" departPos="random"/>
    <flow id="52" begin="0" end="1" period="200" from="D0E0" to="G9H9" departPos="random"/>
    <flow id="53" begin="0" end="1" period="200" from="B4A4" to="E8D8" departPos="random"/>
    <flow id="54" begin="0" end="1" period="200" from="F0E0" to="K3J3" departPos="random"/>
    <flow id="55" begin="0" end="1" period="200" from="J4I4" to="D0C0" departPos="random"/>
    <flow id="56" begin="0" end="1" period="200" from="F4G4" to="C10D10" departPos="random"/>
    <flow id="57" begin="0" end="1" period="200" from="J8I8" to="J3J4" departPos="random"/>
    <flow id="58" begin="0" end="1" period="200" from="D3D4" to="G9G8" departPos="random"/>
    <flow id="59" begin="0" end="1" period="200" from="G6F6" to="B8B9" departPos="random"/>
    <flow id="60" begin="0" end="1" period="200" from="I2H2" to="F9E9" departPos="random"/>
    <flow id="61" begin="0" end="1" period="200" from="I3J3" to="F8E8" departPos="random"/>
    <flow id="62" begin="0" end="1" period="200" from="A0A1" to="D6D5" departPos="random"/>
    <flow id="63" begin="0" end="1" period="200" from="A2A3" to="J9K9" departPos="random"/>
    <flow id="64" begin="0" end="1" period="200" from="J4J3" to="I9I8" departPos="random"/>
    <flow id="65" begin="0" end="1" period="200" from="D4D5" to="A8A7" departPos="random"/>
    <flow id="66" begin="0" end="1" period="200" from="J4J3" to="K2J2" departPos="random"/>
    <flow id="67" begin="0" end="1" period="200" from="B1A1" to="F3E3" departPos="random"/>
    <flow id="68" begin="0" end="1" period="200" from="A9B9" to="I1J1" departPos="random"/>
    <flow id="69" begin="0" end="1" period="200" from="I2I1" to="B5C5" departPos="random"/>
    <flow id="70" begin="0" end="1" period="200" from="F2E2" to="G0F0" departPos="random"/>
    <flow id="71" begin="0" end="1" period="200" from="D0D1" to="J3J4" departPos="random"/>
    <flow id="72" begin="0" end="1" period="200" from="E6F6" to="C4C5" departPos="random"/>
    <flow id="73" begin="0" end="1" period="200" from="F9E9" to="H9G9" departPos="random"/>
    <flow id="74" begin="0" end="1" period="200" from="C3C2" to="D5C5" departPos="random"/>
    <flow id="75" begin="0" end="1" period="200" from="K9J9" to="H0I0" departPos="random"/>
    <flow id="76" begin="0" end="1" period="200" from="E8E7" to="F6F7" departPos="random"/>
    <flow id="77" begin="0" end="1" period="200" from="B5A5" to="C5D5" departPos="random"/>
    <flow id="78" begin="0" end="1" period="200" from="D7E7" to="G3H3" departPos="random"/>
    <flow id="79" begin="0" end="1" period="200" from="C6C7" to="C5C4" departPos="random"/>
    <flow id="80" begin="0" end="1" period="200" from="B0A0" to="G8G9" departPos="random"/>
    <flow id="81" begin="0" end="1" period="200" from="C6C5" to="J7J6" departPos="random"/>
    <flow id="82" begin="0" end="1" period="200" from="J2J1" to="B0A0" departPos="random"/>
    <flow id="83" begin="0" end="1" period="200" from="C7C6" to="H2H1" departPos="random"/>
    <flow id="84" begin="0" end="1" period="200" from="C4D4" to="B6B5" departPos="random"/>
    <flow id="85" begin="0" end="1" period="200" from="K10J10" to="G2F2" departPos="random"/>
    <flow id="86" begin="0" end="1" period="200" from="F1F2" to="I4I5" departPos="random"/>
    <flow id="87" begin="0" end="1" period="200" from="I7H7" to="C2B2" departPos="random"/>
    <flow id="88" begin="0" end="1" period="200" from="B2B1" to="E7E8" departPos="random"/>
    <flow id="89" begin="0" end="1" period="200" from="E6F6" to="F1E1" departPos="random"/>
    <flow id="90" begin="0" end="1" period="200" from="H8I8" to="H2I2" departPos="random"/>
    <flow id="91" begin="0" end="1" period="200" from="K7K8" to="B2B3" departPos="random"/>
    <flow id="92" begin="0" end="1" period="200" from="E4E5" to="D8C8" departPos="random"/>
    <flow id="93" begin="0" end="1" period="200" from="J2J3" to="C8C9" departPos="random"/>
    <flow id="94" begin="0" end="1" period="200" from="C2B2" to="E9E8" departPos="random"/>
    <flow id="95" begin="0" end="1" period="200" from="E6E7" to="D1D0" departPos="random"/>
    <flow id="96" begin="0" end="1" period="200" from="C8C9" to="J9J10" departPos="random"/>
    <flow id="97" begin="0" end="1" period="200" from="E8F8" to="J2J1" departPos="random"/>
    <flow id="98" begin="0" end="1" period="200" from="G0G1" to="A7A6" departPos="random"/>
    <flow id="99" begin="0" end="1" period="200" from="K9K8" to="J0I0" departPos="random"/>
    <flow id="100" begin="0" end="1" period="200" from="K5K4" to="J9J8" departPos="random"/>
    <flow id="101" begin="0" end="1" period="200" from="J1I1" to="C0B0" departPos="random"/>
    <flow id="102" begin="0" end="1" period="200" from="F3E3" to="C4D4" departPos="random"/>
    <flow id="103" begin="0" end="1" period="200" from="E4E3" to="A8A7" departPos="random"/>
    <flow id="104" begin="0" end="1" period="200" from="E1F1" to="K7K8" departPos="random"/>
    <flow id="105" begin="0" end="1" period="200" from="D0D1" to="I4I3" departPos="random"/>
    <flow id="106" begin="0" end="1" period="200" from="F0F1" to="E6F6" departPos="random"/>
    <flow id="107" begin="0" end="1" period="200" from="K3K4" to="K9J9" departPos="random"/>
    <flow id="108" begin="0" end="1" period="200" from="G10F10" to="H7I7" departPos="random"/>
    <flow id="109" begin="0" end="1" period="200" from="B8C8" to="D3D2" departPos="random"/>
    <flow id="110" begin="0" end="1" period="200" from="K5K4" to="G2H2" departPos="random"/>
    <flow id="111" begin="0" end="1" period="200" from="F9F10" to="I10I9" departPos="random"/>
    <flow id="112" begin="0" end="1" period="200" from="A8A7" to="G3G4" departPos="random"/>
    <flow id="113" begin="0" end="1" period="200" from="F5E5" to="J1J2" departPos="random"/>
    <flow id="114" begin="0" end="1" period="200" from="B9A9" to="K4J4" departPos="random"/>
    <flow id="115" begin="0" end="1" period="200" from="B10B9" to="C1C2" departPos="random"/>
    <flow id="116" begin="0" end="1" period="200" from="G4G5" to="H3G3" departPos="random"/>
    <flow id="117" begin="0" end="1" period="200" from="C7B7" to="B4C4" departPos="random"/>
    <flow id="118" begin="0" end="1" period="200" from="J5J6" to="C8C7" departPos="random"/>
    <flow id="119" begin="0" end="1" period="200" from="G4G5" to="G7G6" departPos="random"/>
    <flow id="120" begin="0" end="1" period="200" from="E6E5" to="G3G2" departPos="random"/>
    <flow id="121" begin="0" end="1" period="200" from="F7F6" to="K10J10" departPos="random"/>
    <flow id="122" begin="0" end="1" period="200" from="C3C4" to="H7H8" departPos="random"/>
    <flow id="123" begin="0" end="1" period="200" from="C7C8" to="E3F3" departPos="random"/>
    <flow id="124" begin="0" end="1" period="200" from="H2H3" to="D3D4" departPos="random"/>
    <flow id="125" begin="0" end="1" period="200" from="D5D6" to="I10J10" departPos="random"/>
    <flow id="126" begin="0" end="1" period="200" from="B0A0" to="F0G0" departPos="random"/>
    <flow id="127" begin="0" end="1" period="200" from="K9K8" to="K9K10" departPos="random"/>
    <flow id="128" begin="0" end="1" period="200" from="B0B1" to="C4C5" departPos="random"/>
    <flow id="129" begin="0" end="1" period="200" from="D0D1" to="K0K1" departPos="random"/>
    <flow id="130" begin="0" end="1" period="200" from="J4J5" to="J4J3" departPos="random"/>
    <flow id="131" begin="0" end="1" period="200" from="E10F10" to="B9A9" departPos="random"/>
    <flow id="132" begin="0" end="1" period="200" from="I9J9" to="H6G6" departPos="random"/>
    <flow id="133" begin="0" end="1" period="200" from="G6G7" to="K8J8" departPos="random"/>
    <flow id="134" begin="0" end="1" period="200" from="H10H9" to="A10B10" departPos="random"/>
    <flow id="135" begin="0" end="1" period="200" from="I8H8" to="D3D4" departPos="random"/>
    <flow id="136" begin="0" end="1" period="200" from="H1H2" to="K1J1" departPos="random"/>
    <flow id="137" begin="0" end="1" period="200" from="B6B7" to="B4B3" departPos="random"/>
    <flow id="138" begin="0" end="1" period="200" from="B3B4" to="G0H0" departPos="random"/>
    <flow id="139" begin="0" end="1" period="200" from="D10D9" to="G5H5" departPos="random"/>
    <flow id="140" begin="0" end="1" period="200" from="H7H8" to="C3C4" departPos="random"/>
    <flow id="141" begin="0" end="1" period="200" from="G9F9" to="D0D1" departPos="random"/>
    <flow id="142" begin="0" end="1" period="200" from="F3F2" to="J7J6" departPos="random"/>
    <flow id="143" begin="0" end="1" period="200" from="J10K10" to="B1C1" departPos="random"/>
    <flow id="144" begin="0" end="1" period="200" from="E6F6" to="D1C1" departPos="random"/>
    <flow id="145" begin="0" end="1" period="200" from="A0B0" to="I3H3" departPos="random"/>
    <flow id="146" begin="0" end="1" period="200" from="G9G10" to="D0C0" departPos="random"/>
    <flow id="147" begin="0" end="1" period="200" from="I0I1" to="G0G1" departPos="random"/>
    <flow id="148" begin="0" end="1" period="200" from="E7E6" to="A1A0" departPos="random"/>
    <flow id="149" begin="0" end="1" period="200" from="B0C0" to="J4K4" departPos="random"/>
    <flow id="150" begin="0" end="1" period="200" from="J7I7" to="F9G9" departPos="random"/>
    <flow id="151" begin="0" end="1" period="200" from="J0I0" to="G3G2" departPos="random"/>
    <flow id="152" begin="0" end="1" period="200" from="B8A8" to="B5C5" departPos="random"/>
    <flow id="153" begin="0" end="1" period="200" from="D4D5" to="J6J7" departPos="random"/>
    <flow id="154" begin="0" end="1" period="200" from="I5J5" to="J2J1" departPos="random"/>
    <flow id="155" begin="0" end="1" period="200" from="J6J7" to="C4C3" departPos="random"/>
    <flow id="156" begin="0" end="1" period="200" from="C8C9" to="B3A3" departPos="random"/>
    <flow id="157" begin="0" end="1" period="200" from="I4H4" to="J5I5" departPos="random"/>
    <flow id="158" begin="0" end="1" period="200" from="E4F4" to="G7G8" departPos="random"/>
    <flow id="159" begin="0" end="1" period="200" from="B8C8" to="K0J0" departPos="random"/>
    <flow id="160" begin="0" end="1" period="200" from="J2K2" to="K6K5" departPos="random"/>
    <flow id="161" begin="0" end="1" period="200" from="I7I6" to="J4J5" departPos="random"/>
    <flow id="162" begin="0" end="1" period="200" from="A3A2" to="H9I9" departPos="random"/>
    <flow id="163" begin="0" end="1" period="200" from="D7D6" to="K0J0" departPos="random"/>
    <flow id="164" begin="0" end="1" period="200" from="I6I5" to="J2K2" departPos="random"/>
    <flow id="165" begin="0" end="1" period="200" from="I7I6" to="D0E0" departPos="random"/>
    <flow id="166" begin="0" end="1" period="200" from="I4J4" to="B3B4" departPos="random"/>
    <flow id="167" begin="0" end="1" period="200" from="J3J4" to="J2I2" departPos="random"/>
    <flow id="168" begin="0" end="1" period="200" from="C5C6" to="I8H8" departPos="random"/>
    <flow id="169" begin="0" end="1" period="200" from="F10E10" to="D4D3" departPos="random"/>
    <flow id="170" begin="0" end="1" period="200" from="I5I6" to="C6C5" departPos="random"/>
    <flow id="171" begin="0" end="1" period="200" from="A3A2" to="C2C1" departPos="random"/>
    <flow id="172" begin="0" end="1" period="200" from="D6E6" to="J2K2" departPos="random"/>
    <flow id="173" begin="0" end="1" period="200" from="K5J5" to="D1D0" departPos="random"/>
    <flow id="174" begin="0" end="1" period="200" from="G9H9" to="E4D4" departPos="random"/>
    <flow id="175" begin="0" end="1" period="200" from="K7J7" to="F8F9" departPos="random"/>
    <flow id="176" begin="0" end="1" period="200" from="K1J1" to="B4B3" departPos="random"/>
    <flow id="177" begin="0" end="1" period="200" from="K5K4" to="C10D10" departPos="random"/>
    <flow id="178" begin="0" end="1" period="200" from="K4K3" to="D0D1" departPos="random"/>
    <flow id="179" begin="0" end="1" period="200" from="B3B4" to="E8D8" departPos="random"/>
    <flow id="180" begin="0" end="1" period="200" from="H8I8" to="D5D4" departPos="random"/>
    <flow id="181" begin="0" end="1" period="200" from="G5H5" to="F6E6" departPos="random"/>
    <flow id="182" begin="0" end="1" period="200" from="E2E3" to="G2G3" departPos="random"/>
    <flow id="183" begin="0" end="1" period="200" from="C9C10" to="H6H7" departPos="random"/>
    <flow id="184" begin="0" end="1" period="200" from="A0A1" to="J9J8" departPos="random"/>
    <flow id="185" begin="0" end="1" period="200" from="F8G8" to="H7I7" departPos="random"/>
    <flow id="186" begin="0" end="1" period="200" from="I0I1" to="H2H3" departPos="random"/>
    <flow id="187" begin="0" end="1" period="200" from="E10D10" to="A9B9" departPos="random"/>
    <flow id="188" begin="0" end="1" period="200" from="H1I1" to="D7C7" departPos="random"/>
    <flow id="189" begin="0" end="1" period="200" from="D5D4" to="J1I1" departPos="random"/>
    <flow id="190" begin="0" end="1" period="200" from="H7I7" to="D3E3" departPos="random"/>
    <flow id="191" begin="0" end="1" period="200" from="D4E4" to="E5D5" departPos="random"/>
    <flow id="192" begin="0" end="1" period="200" from="E4E5" to="D3D2" departPos="random"/>
    <flow id="193" begin="0" end="1" period="200" from="B5C5" to="E6E5" departPos="random"/>
    <flow id="194" begin="0" end="1" period="200" from="K1J1" to="H3H2" departPos="random"/>
    <flow id="195" begin="0" end="1" period="200" from="J7I7" to="G6H6" departPos="random"/>
    <flow id="196" begin="0" end="1" period="200" from="D3E3" to="G0F0" departPos="random"/>
    <flow id="197" begin="0" end="1" period="200" from="A0A1" to="D2D1" departPos="random"/>
    <flow id="198" begin="0" end="1" period="200" from="E7E8" to="G3F3" departPos="random"/>
    <flow id="199" begin="0" end="1" period="200" from="H10I10" to="F10G10" departPos="random"/>
</routes>
