[General]
cmdenv-express-mode = true
cmdenv-autoflush = true
cmdenv-status-frequency = 1s
**.cmdenv-log-level = info

image-path = ../../images

network = Scenario

##########################################################
#            Simulation parameters                       #
##########################################################
debug-on-errors = true
print-undisposed = true

sim-time-limit = 2010s

**.scalar-recording = true
**.vector-recording = true

*.playgroundSizeX = 1050m
*.playgroundSizeY = 1050m
*.playgroundSizeZ = 50m


##########################################################
# Annotation parameters                                  #
##########################################################
*.annotations.draw = true

##########################################################
# Obstacle parameters                                    #
##########################################################
#*.obstacles.obstacles = xmldoc("config.xml", "//AnalogueModel[@type='SimpleObstacleShadowing']/obstacles")

##########################################################
#            TraCIScenarioManager parameters             #
##########################################################
*.manager.updateInterval = 0.1s
*.manager.host = "localhost"
*.manager.port = 9999
*.manager.autoShutdown = true
*.manager.launchConfig = xmldoc("10grids.launchd.xml")
*.inserter.numVehicles = 200

##########################################################
#            11p specific parameters                     #
#                                                        #
#                    NIC-Settings                        #
##########################################################
*.connectionManager.sendDirect = true
*.connectionManager.maxInterfDist = 50m
*.connectionManager.drawMaxIntfDist = false

*.**.nic.mac1609_4.useServiceChannel = false

*.**.nic.mac1609_4.txPower = 20mW
*.**.nic.mac1609_4.bitrate = 6Mbps
*.**.nic.phy80211p.minPowerLevel = -110dBm

*.**.nic.phy80211p.useNoiseFloor = true
*.**.nic.phy80211p.noiseFloor = -98dBm

*.**.nic.phy80211p.decider = xmldoc("config.xml")
*.**.nic.phy80211p.analogueModels = xmldoc("config.xml")
*.**.nic.phy80211p.usePropagationDelay = true

*.**.nic.phy80211p.antenna = xmldoc("antenna.xml", "/root/Antenna[@id='monopole']")
*.node[*].nic.phy80211p.antennaOffsetY = 0 m
*.node[*].nic.phy80211p.antennaOffsetZ = 1.895 m

##########################################################
#                      RSU Inserter                      #
##########################################################
*.rsuInserter.isGrid = true
*.rsuInserter.xGridSize = 10
*.rsuInserter.yGridSize = 10
*.rsuInserter.roadLength = 100.0
*.rsuInserter.maliciousNum = 20

##########################################################
#                      RSU Layer                         #
##########################################################
*.rsu[*].applType = "ApplicationLayerRSU"
*.rsu[*].appl.headerLength = 80 bit
*.rsu[*].appl.sendBeacons = false
*.rsu[*].appl.dataOnSch = false
*.rsu[*].appl.beaconInterval = 1s
*.rsu[*].mobility.x = 0
*.rsu[*].mobility.y = 0
*.rsu[*].mobility.z = 0
*.rsu[*].isMalicious = false

##########################################################
#                      App Layer                         #
##########################################################
*.node[*].applType = "ApplicationLayerTest"
*.node[*].appl.headerLength = 80 bit
*.node[*].appl.sendBeacons = false
*.node[*].appl.dataOnSch = false
*.node[*].appl.beaconInterval = 1s
*.node[*].appl.vehTotalNum = 200
*.node[*].appl.maliciousNum = 40
*.node[*].appl.maliciousPoss = 0.8

##########################################################
#                      Mobility                          #
##########################################################
*.node[*].veinsmobility.x = 0
*.node[*].veinsmobility.y = 0
*.node[*].veinsmobility.z = 0
*.node[*].veinsmobility.setHostSpeed = false

##########################################################
#                      IB-DTM                          	#
##########################################################
*.ibdtmSession.committeeSize = 16
*.ibdtmSession.initEffectiveStake = 18.75
*.ibdtmSession.effectiveStakeUpperBound = 25
*.ibdtmSession.effectiveStakeLowerBound = 10
*.ibdtmSession.initITSstake = 12
*.ibdtmSession.numVehicles = 200
*.ibdtmSession.baseReward = 0.5625
*.ibdtmSession.penaltyFactor = 4
*.ibdtmSession.epochTickInterval = 2
*.ibdtmSession.epochSlots = 25
*.ibdtmSession.traceBackEpoches = 150
*.ibdtmSession.enableIBDTM = true

[Config Default]

[Config WithBeaconing]
*.node[*].appl.sendBeacons = true

[Config WithChannelSwitching]
*.**.nic.mac1609_4.useServiceChannel = true
*.node[*].appl.dataOnSch = true

